Version 4
SHEET 1 880 680
WIRE 352 32 176 32
WIRE 208 64 160 64
WIRE 352 80 352 32
WIRE -80 96 -144 96
WIRE 80 96 80 64
WIRE 80 96 0 96
WIRE 176 128 176 32
WIRE 0 144 -64 144
WIRE 80 144 80 96
WIRE 144 144 80 144
WIRE 208 160 208 64
WIRE 256 160 208 160
WIRE 432 160 352 160
WIRE 144 176 80 176
WIRE 432 192 432 160
WIRE -144 224 -144 176
WIRE -112 224 -144 224
WIRE -64 224 -112 224
WIRE 80 224 80 176
WIRE 80 224 -64 224
WIRE -112 240 -112 224
WIRE 176 288 176 192
WIRE 352 288 352 240
WIRE 352 288 176 288
FLAG -112 240 0
FLAG 432 192 0
FLAG 256 160 out
SYMBOL Opamps\\UniversalOpamp2 176 160 R0
SYMATTR InstName U1
SYMBOL voltage -64 128 R0
WINDOW 123 0 0 Left 2
WINDOW 39 0 0 Left 2
SYMATTR InstName V1
SYMATTR Value -1
SYMBOL voltage -144 80 R0
WINDOW 3 -17 213 Left 2
WINDOW 123 0 0 Left 2
WINDOW 39 0 0 Left 2
SYMATTR Value PULSE(0 1 0 1 1 0 0 1)
SYMATTR InstName V2
SYMBOL res -96 112 R270
WINDOW 0 32 56 VTop 2
WINDOW 3 0 56 VBottom 2
SYMATTR InstName R1
SYMATTR Value 10k
SYMBOL res -16 160 R270
WINDOW 0 32 56 VTop 2
WINDOW 3 0 56 VBottom 2
SYMATTR InstName R2
SYMATTR Value 10k
SYMBOL res 64 80 R270
WINDOW 0 32 56 VTop 2
WINDOW 3 0 56 VBottom 2
SYMATTR InstName R3
SYMATTR Value 10k
SYMBOL voltage 352 64 R0
WINDOW 0 -16 55 Left 2
WINDOW 3 22 14 Left 2
WINDOW 123 0 0 Left 2
WINDOW 39 0 0 Left 2
SYMATTR InstName V3
SYMATTR Value 12
SYMBOL voltage 352 144 R0
WINDOW 0 -13 55 Left 2
WINDOW 123 0 0 Left 2
WINDOW 39 0 0 Left 2
SYMATTR InstName V4
SYMATTR Value 2
TEXT -178 314 Left 2 !.tran 2
