* Z:\home\miceuz\Xaltura\linear-dimmer\Draft2.asc
V1 N001 0 16V
V2 N007 0 0.01
XU1 N007 N005 N004 0 N006 LT1720
D1 N003 N005 LXHL-BW02
Q1 N002 P001 N001 0 2SAR512P
L1 N002 N003 820µH
D2 0 N002 1N5819
R1 N005 0 0.5
C1 N003 N005 10µ
R2 P001 P002 1k
C2 N001 0 220µ
V3 N004 0 5V
M1 P002 N006 0 0 2N7002
.model D D
.lib C:\Program Files (x86)\LTC\LTspiceIV\lib\cmp\standard.dio
.model NPN NPN
.model PNP PNP
.lib C:\Program Files (x86)\LTC\LTspiceIV\lib\cmp\standard.bjt
.model NMOS NMOS
.model PMOS PMOS
.lib C:\Program Files (x86)\LTC\LTspiceIV\lib\cmp\standard.mos
.tran 0 420e-6 42e-6
.lib LTC.lib
.backanno
.end
