Version 4
SHEET 1 1044 680
WIRE 48 -16 -96 -16
WIRE 288 -16 48 -16
WIRE 448 -16 384 -16
WIRE 512 -16 448 -16
WIRE 640 -16 592 -16
WIRE 880 -16 640 -16
WIRE 48 32 48 -16
WIRE 448 64 448 -16
WIRE 640 96 640 -16
WIRE 880 96 880 -16
WIRE 176 128 -192 128
WIRE 176 144 176 128
WIRE 448 144 448 128
WIRE 144 160 128 160
WIRE 272 176 208 176
WIRE 144 192 -96 192
WIRE 272 208 272 176
WIRE 288 208 272 208
WIRE 640 208 640 160
WIRE 736 208 640 208
WIRE 880 208 880 160
WIRE 880 208 736 208
WIRE 176 224 176 208
WIRE -96 240 -96 192
WIRE 128 368 128 160
WIRE 736 368 736 208
WIRE 736 368 128 368
WIRE -96 384 -96 320
WIRE 736 384 736 368
FLAG -96 64 0
FLAG -96 384 0
FLAG 736 464 0
FLAG 48 96 0
FLAG 448 144 0
FLAG 176 224 0
FLAG -192 208 0
FLAG 336 224 0
SYMBOL voltage -96 -32 R0
WINDOW 123 0 0 Left 2
WINDOW 39 0 0 Left 2
SYMATTR InstName V1
SYMATTR Value 16V
SYMBOL voltage -96 224 R0
WINDOW 123 0 0 Left 2
WINDOW 39 0 0 Left 2
SYMATTR InstName V2
SYMATTR Value 0.01
SYMBOL Comparators\\LT1721 176 112 R0
WINDOW 3 -146 68 Left 2
SYMATTR InstName U1
SYMBOL LED 864 96 R0
SYMATTR InstName D1
SYMATTR Value LXHL-BW02
SYMBOL pnp 384 48 M270
SYMATTR InstName Q1
SYMATTR Value 2SAR512P
SYMBOL ind 496 0 R270
WINDOW 0 32 56 VTop 2
WINDOW 3 5 56 VBottom 2
SYMATTR InstName L1
SYMATTR Value 820µH
SYMBOL schottky 464 128 R180
WINDOW 0 24 64 Left 2
WINDOW 3 24 0 Left 2
SYMATTR InstName D2
SYMATTR Value 1N5819
SYMBOL res 720 368 R0
SYMATTR InstName R1
SYMATTR Value 0.5
SYMBOL cap 624 96 R0
SYMATTR InstName C1
SYMATTR Value 10µ
SYMBOL res 320 32 R0
SYMATTR InstName R2
SYMATTR Value 1k
SYMBOL cap 32 32 R0
SYMATTR InstName C2
SYMATTR Value 220µ
SYMBOL voltage -192 112 R0
WINDOW 123 0 0 Left 2
WINDOW 39 0 0 Left 2
SYMATTR InstName V3
SYMATTR Value 5V
SYMBOL nmos 288 128 R0
SYMATTR InstName M1
SYMATTR Value 2N7002
TEXT -72 464 Left 2 !.tran 0 420e-6 42e-6
